examples/Custom_controls_example/DSSfiles/Diamond_dss/Lines_withVR.dss
New Line.OH_4417776E_05060$4516751E_05060 bus1=4417776E_05060.1.2.3 bus2=4516751E_05060.1.2.3 length=48.158398 units=m linecode=OH-ACSR_3C_1/0 phases=3 enabled=True
New Line.OH_ND45149807_05060$1041682E_05060 bus1=ND45149807_05060.1.2.3 bus2=1041682E_05060.1.2.3 length=2.133600 units=m linecode=OH-ACSR_3C_1/0 phases=3 enabled=True
New Line.OH_ND45149914_05060$1992888E_05060 bus1=ND45149914_05060.1.2.3 bus2=1992888E_05060.1.2.3 length=39.928799 units=m linecode=OH-ACSR_3C_1/0 phases=3 enabled=True
New Line.OH_ND45150124_05060$ND45149690_0506 bus1=ND45150124_05060.1.2.3 bus2=ND45149690_05060.1.2.3 length=1.828800 units=m linecode=OH-ACSR_3C_1/0 phases=3 enabled=True
New Line.OH_PD0009_05060_1$1041675E_05060 bus1=PD0009_05060_1.1.2.3 bus2=1041675E_05060.1.2.3 length=69.799198 units=m linecode=OH-CU_3C_4/0 phases=3 enabled=True
New Line.OH_4081666E_05060$4081665E_05060 bus1=4081666E_05060.1.2.3 bus2=4081665E_05060.1.2.3 length=33.527999 units=m linecode=OH-CU_3C_#6_#6N phases=3 enabled=True
New Line.OH_ND45150491_05060$1041678E_05060 bus1=ND45150491_05060.1.2.3 bus2=1041678E_05060.1.2.3 length=120.395996 units=m linecode=OH-CU_3C_4/0_4/0N phases=3 enabled=True
New Line.UG_665261E_05060_1$P5378783-1_05060 bus1=665261E_05060_1.2.3 bus2=P5378783-1_05060.2.3 length=56.387998 units=m linecode=UG-CLP_2C_1/0_5/12/16KV phases=2 enabled=True
New Line.OH_4693285E_05060$PD0251_05060 bus1=4693285E_05060.1.2.3 bus2=PD0251_05060.1.2.3 length=6.705600 units=m linecode=OH-CU_3C_#6 phases=3 enabled=True
New Line.OH_1041684EFP_05060$ND45149807_0506 bus1=1041684EFP_05060.1.2.3 bus2=ND45149807_05060.1.2.3 length=70.103998 units=m linecode=OH-ACSR_3C_1/0 phases=3 enabled=True
New Line.OH_1041606E_05060$1379769E_05060_1 bus1=1041606E_05060.2.3 bus2=1379769E_05060_1.2.3 length=28.651199 units=m linecode=OH-ACSR_3C_1/0 phases=2 enabled=True
New Line.OH_ND147981388_05060$PD0005_05060 bus1=ND147981388_05060.1.2.3 bus2=PD0005_05060.1.2.3 length=56.997598 units=m linecode=OH-ACSR_3C_1/0_1/0N phases=3 enabled=True
New Line.OH_4160253E_05060$PD0307_05060_1 bus1=4160253E_05060.1.2.3 bus2=PD0307_05060_1.1.2.3 length=217.931993 units=m linecode=OH-ACSR_3C_1/0 phases=3 enabled=True
New Line.OH_1041684EFP_05060$ND45150124_0506 bus1=1041684EFP_05060.1.2.3 bus2=ND45150124_05060.1.2.3 length=93.268797 units=m linecode=OH-ACSR_3C_1/0 phases=3 enabled=True
New Line.OH_585493H_05060$4417776E_05060 bus1=585493H_05060.1.2.3 bus2=4417776E_05060.1.2.3 length=34.137599 units=m linecode=OH-ACSR_3C_1/0 phases=3 enabled=True
New Line.UG_1379769E_05060$45149512_05060 bus1=1379769E_05060.2.3 bus2=45149512_05060.2.3 length=117.347996 units=m linecode=UG-CLP_2C_#2_5/12/16KV phases=2 enabled=True
New Line.UG_PH1664_05060$P5378686-2_05060 bus1=PH1664_05060.2.3 bus2=P5378686-2_05060.2.3 length=29.870399 units=m linecode=UG-CLP_2C_#2_5/12/16KV phases=2 enabled=True
New Line.OH_0253E_05060$4160253E_05060 bus1=0253E_05060.1.2.3 bus2=4160253E_05060.1.2.3 length=4.876800 units=m linecode=OH-ACSR_3C_1/0 phases=3 enabled=True
New Line.OH_ND45149960_05060$ND45149838_0506 bus1=ND45149960_05060.1.2.3 bus2=ND45149838_05060.1.2.3 length=42.367199 units=m linecode=OH-CU_3C_#6_#6N phases=3 enabled=True
New Line.UG_45149512_05060_1$P5514758-1_0506 bus1=45149512_05060_1.2.3 bus2=P5514758-1_05060.2.3 length=4.572000 units=m linecode=UG-CLP_2C_#2_5/12/16KV phases=2 enabled=True
New Line.OH_ND45149677_05060$ND147981388_050 bus1=ND45149677_05060.1.2.3 bus2=ND147981388_05060.1.2.3 length=110.337596 units=m linecode=OH-ACSR_3C_1/0_1/0N phases=3 enabled=True
New Line.OH_1041678E_05060$PD0009_05060 bus1=1041678E_05060.1.2.3 bus2=PD0009_05060.1.2.3 length=117.347996 units=m linecode=OH-CU_3C_4/0 phases=3 enabled=True
New Line.OH_1041675E_05060$ND45149900_05060 bus1=1041675E_05060.1.2.3 bus2=ND45149900_05060.1.2.3 length=67.360798 units=m linecode=OH-CU_3C_4/0 phases=3 enabled=True
New Line.OH_ND45149623_05060$ND45149677_0506 bus1=ND45149623_05060.1.2.3 bus2=ND45149677_05060.1.2.3 length=74.371198 units=m linecode=OH-ACSR_3C_1/0_1/0N phases=3 enabled=True
New Line.OH_PD0005_05060_1$ND135163252_05060 bus1=PD0005_05060_1.1.2.3 bus2=ND135163252_05060.1.2.3 length=71.018398 units=m linecode=OH-CU_3C_#6 phases=3 enabled=True
New Line.UG_665260E_05060$P5436258-2_05060 bus1=665260E_05060.2.3 bus2=P5436258-2_05060.2.3 length=50.291998 units=m linecode=UG-CLP_2C_1/0_5/12/16KV phases=2 enabled=True
New Line.OH_300182E_05060$1173075E_05060 bus1=300182E_05060.1.2.3 bus2=1173075E_05060.1.2.3 length=12.192000 units=m linecode=OH-ACSR_3C_1/0 phases=3 enabled=True
New Line.UG_GS0549-1_05060$0253E_05060_1 bus1=GS0549-1_05060.1.2.3 bus2=0253E_05060_1.1.2.3 length=171.602395 units=m linecode=UG-CLP_3C_750_5/12/16KV phases=3 enabled=True
New Line.OH_500424E_05060$4693285E_05060 bus1=500424E_05060.1.2.3 bus2=4693285E_05060.1.2.3 length=231.038393 units=m linecode=OH-CU_3C_#6 phases=3 enabled=True
New Line.OH_ND45149788_05060$523427E_05060 bus1=ND45149788_05060.1.2.3 bus2=523427E_05060.1.2.3 length=42.671999 units=m linecode=OH-CU_3C_#6 phases=3 enabled=True
New Line.OH_ND45150269_05060$ND45150491_0506 bus1=ND45150269_05060.1.2.3 bus2=ND45150491_05060.1.2.3 length=61.264798 units=m linecode=OH-ACSR_3C_1/0 phases=3 enabled=True
New Line.OH_PD0008_05060_1$ND45149622_05060 bus1=PD0008_05060.1.2.3 bus2=ND45149622_05060.1.2.3 length=598.931981 units=m linecode=OH-ACSR_3C_1/0_1/0N phases=3 enabled=True
New Line.OH_523427E_05060$500424E_05060 bus1=523427E_05060.1.2.3 bus2=500424E_05060.1.2.3 length=88.087197 units=m linecode=OH-CU_3C_#6 phases=3 enabled=True
New Line.OH_182E_05060$300182E_05060 bus1=182E_05060.1.2.3 bus2=300182E_05060.1.2.3 length=12.496800 units=m linecode=OH-ACSR_3C_1/0 phases=3 enabled=True
New Line.OH_4081665E_05060$ND45149960_05060 bus1=4081665E_05060.1.2.3 bus2=ND45149960_05060.1.2.3 length=22.859999 units=m linecode=OH-CU_3C_#6_#6N phases=3 enabled=True
New Line.UG_GS0549-2_05060$45148260_05060 bus1=GS0549-2_05060.1.2.3 bus2=45148260_05060.1.2.3 length=7.620000 units=m linecode=UG-BUS phases=3 enabled=True
New Line.OH_ND45150304_05060$ND45149056_0506 bus1=ND45150304_05060.1.2.3 bus2=ND45149056_05060.1.2.3 length=43.281599 units=m linecode=OH-CU_3C_#6 phases=3 enabled=True
New Line.OH_ND45150269_05060$4081667E_05060 bus1=ND45150269_05060.1.2.3 bus2=4081667E_05060.1.2.3 length=27.736799 units=m linecode=OH-CU_3C_#6_#6N phases=3 enabled=True
New Line.OH_PD0010_05060$ND45150738_05060 bus1=PD0010_05060.1.2.3 bus2=ND45150738_05060.1.2.3 length=21.335999 units=m linecode=OH-ACSR_3C_1/0 phases=3 enabled=True
New Line.OH_ND45150491_05060$PD0172_05060 bus1=ND45150491_05060.1.2.3 bus2=PD0172_05060.1.2.3 length=15.849599 units=m linecode=OH-ACSR_3C_1/0 phases=3 enabled=True
New Line.OH_ND45149900_05060$1379785ET1_0506 bus1=ND45149900_05060.1.2.3 bus2=1379785ET1_05060.1.2.3 length=156.971995 units=m linecode=OH-ACSR_3C_1/0_1/0N phases=3 enabled=True
New Line.OH_ND45149886_05060$ND45150269_0506 bus1=ND45149886_05060.1.2.3 bus2=ND45150269_05060.1.2.3 length=60.655198 units=m linecode=OH-ACSR_3C_1/0 phases=3 enabled=True
New Line.OH_ND45149924_05060$ND45149788_0506 bus1=ND45149924_05060.1.2.3 bus2=ND45149788_05060.1.2.3 length=96.926397 units=m linecode=OH-CU_3C_#6 phases=3 enabled=True
New Line.OH_1041682E_05060$ND45149886_05060 bus1=1041682E_05060.1.2.3 bus2=ND45149886_05060.1.2.3 length=18.592799 units=m linecode=OH-ACSR_3C_1/0 phases=3 enabled=True
New Line.OH_ND45149056_05060$4591398E_05060 bus1=ND45149056_05060.1.2.3 bus2=4591398E_05060.1.2.3 length=108.813597 units=m linecode=OH-CU_3C_#6 phases=3 enabled=True
New Line.OH_4516751E_05060$ND45149914_05060 bus1=4516751E_05060.1.2.3 bus2=ND45149914_05060.1.2.3 length=13.716000 units=m linecode=OH-ACSR_3C_1/0 phases=3 enabled=True
New Line.OH_ND147981388_05060$4332023E_05060 bus1=ND147981388_05060.1.2.3 bus2=4332023E_05060.1.2.3 length=81.381597 units=m linecode=OH-CU_3C_#2 phases=3 enabled=True
New Line.OH_ND45149838_05060$ND45150304_0506 bus1=ND45149838_05060.1.2.3 bus2=ND45150304_05060.1.2.3 length=68.275198 units=m linecode=OH-CU_3C_#6_#6N phases=3 enabled=True
New Line.OH_ND45149690_05060$1041606E_05060_ bus1=ND45149690_05060.2.3 bus2=1041606E_05060_1.2.3 length=2.743200 units=m linecode=OH-ACSR_3C_1/0 phases=2 enabled=True
New Line.UG_PH2369_05060$P5378650-1_05060 bus1=PH2369_05060.2.3 bus2=P5378650-1_05060.2.3 length=22.250399 units=m linecode=UG-CLP_2C_#2_5/12/16KV phases=2 enabled=True
New Line.UG_4082118E_05060$P5378763-1_05060 bus1=4082118E_05060.1.3 bus2=P5378763-1_05060.1.3 length=36.880799 units=m linecode=UG-CLP_2C_1/0_5/12/16KV phases=2 enabled=True
New Line.OH_4081667E_05060$4081666E_05060 bus1=4081667E_05060.1.2.3 bus2=4081666E_05060.1.2.3 length=31.089599 units=m linecode=OH-CU_3C_#6_#6N phases=3 enabled=True
New Line.OH_PD0307_05060$1041684EFP_05060 bus1=PD0307_05060.1.2.3 bus2=1041684EFP_05060.1.2.3 length=11.277600 units=m linecode=OH-ACSR_3C_1/0 phases=3 enabled=True
New Line.OH_ND135163252_05060$ND45149924_050 bus1=ND135163252_05060.1.2.3 bus2=ND45149924_05060.1.2.3 length=1.524000 units=m linecode=OH-CU_3C_#6 phases=3 enabled=True
New Line.OH_1173075E_05060$585493H_05060 bus1=1173075E_05060.1.2.3 bus2=585493H_05060.1.2.3 length=21.031199 units=m linecode=OH-ACSR_3C_1/0 phases=3 enabled=True
New Line.UG_GS0549-2_05060_1$182E_05060_1 bus1=GS0549-2_05060_1.1.2.3 bus2=182E_05060_1.1.2.3 length=193.547994 units=m linecode=UG-CLP_3C_750_5/12/16KV phases=3 enabled=True
New Line.OH_1379785ET1_05060$PD0008_05060 bus1=1379785ET1_05060.1.2.3 bus2=PD0008_05060.1.2.3 length=14.325600 units=m linecode=OH-ACSR_3C_1/0_1/0N phases=3 enabled=True
New Line.UG_154943EPH_05060$P5448478-1_05060 bus1=154943EPH_05060.1.3 bus2=P5448478-1_05060.1.3 length=50.291998 units=m linecode=UG-CLP_2C_#2_5/12/16KV phases=2 enabled=True
New Line.OH_ND45149690_05060$PD0010_05060_1 bus1=ND45149690_05060.1.2.3 bus2=PD0010_05060_1.1.2.3 length=88.391997 units=m linecode=OH-ACSR_3C_1/0 phases=3 enabled=True
New Line.OH_ND45149914_05060$2129811E_05060 bus1=ND45149914_05060.1.2.3 bus2=2129811E_05060.1.2.3 length=30.479999 units=m linecode=OH-ACSR_3C_#4 phases=3 enabled=True
New Line.UG_45148276_05060$GS0549-2_05060 bus1=45148276_05060.1.2.3 bus2=GS0549-2_05060.1.2.3 length=7.620000 units=m linecode=UG-BUS phases=3 enabled=True
New Line.UG_05060$GS0549-3_05060 bus1=05060.1.2.3 bus2=GS0549-3_05060.1.2.3 length=648.004779 units=m linecode=UG-CLP_3C_750_5/12/16KV phases=3 enabled=True

/*New Transformer.VRa phases=1 windings=2 buses=(regpd0307_05060_1.1, pd0307_05060_1.1) conns=(wye, wye) kvs=(2.309,2.309) kvas=(10000, 10000) xhl=0.01 Maxtap=1.05 Mintap=0.95 enabled=True
New RegControl.VRa_ctrl transformer=VRa winding=2 vreg=120 ptratio=60 band=2 enabled=True delay=51
New Transformer.VRb phases=1 windings=2 buses=(regpd0307_05060_1.2, pd0307_05060_1.2) conns=(wye, wye) kvs=(2.309,2.309) kvas=(10000, 10000) xhl=0.01 Maxtap=1.05 Mintap=0.95 enabled=True
New RegControl.VRb_ctrl transformer=VRb winding=2 vreg=120 ptratio=60 band=2 enabled=True delay=51
New Transformer.VRc phases=1 windings=2 buses=(regpd0307_05060_1.3, pd0307_05060_1.3) conns=(wye, wye) kvs=(2.309,2.309) kvas=(10000, 10000) xhl=0.01 Maxtap=1.05 Mintap=0.95 enabled=True
New RegControl.VRc_ctrl transformer=VRc winding=2 vreg=120 ptratio=60 band=2 enabled=True delay=51*/

//New Transformer.VRa phases=1 windings=2 buses=(PD0008_05060.1, PD0008_05060reg.1) conns=(wye, wye) kvs=(2.309,2.309) kvas=(10000, 10000) xhl=0.01 Maxtap=1.05 Mintap=0.95 enabled=True
//New RegControl.VRa_ctrl transformer=VRa winding=2 vreg=116 ptratio=60 band=2 enabled=True delay=51
//New Transformer.VRb phases=1 windings=2 buses=(PD0008_05060.2, PD0008_05060reg.2) conns=(wye, wye) kvs=(2.309,2.309) kvas=(10000, 10000) xhl=0.01 Maxtap=1.05 Mintap=0.95 enabled=True
//New RegControl.VRb_ctrl transformer=VRb winding=2 vreg=116 ptratio=60 band=2 enabled=True delay=51
//New Transformer.VRc phases=1 windings=2 buses=(PD0008_05060.3, PD0008_05060reg.3) conns=(wye, wye) kvs=(2.309,2.309) kvas=(10000, 10000) xhl=0.01 Maxtap=1.05 Mintap=0.95 enabled=True
//New RegControl.VRc_ctrl transformer=VRc winding=2 vreg=116 ptratio=60 band=2 enabled=True delay=51

New Capacitor.newCap bus=PD0008_05060 kV=4.15692 kvar=300 conn=wye
New CapControl.newCap_ctrl element=Line.OH_1379785ET1_05060$PD0008_05060 Terminal=2 Capacitor=newCap PTratio=19.25 Type=Voltage ONsetting=121 OFFsetting=125 Delay=180 enabled=yes // VoltOverride=yes Vmin=115 Vmax=124